Caso 2 - Recarga Madrugada e Fornecimento no Pico/Subestacao_EXP_CURRENTS.CSV
Element, I1_1, Ang1_1, I1_2, Ang1_2, I1_3, Ang1_3, I1_4, Ang1_4, Iresid1, AngResid1, I2_1, Ang2_1, I2_2, Ang2_2, I2_3, Ang2_3, I2_4, Ang2_4, Iresid2, AngResid2
Vsource.SOURCE,    104.352,   147.80,     104.35,    27.80,     104.35,   -92.20,          0,     0.00, 0.00538369,   149.27,    104.352,   -32.20,     104.35,  -152.20,     104.35,    87.80,          0,     0.00, 0.00538369,   -30.73
Transformer.T32,   0.648266,   -28.76,   0.648266,  -148.76,   0.648266,    91.24,          0,     0.00, 1.02393E-012,    37.39,    38.3241,   126.36,    38.3241,     6.36,     38.324,  -113.64, 0.000250145,   -93.69, 3.92014E-012,    73.14
Transformer.T33,   0.648929,   -28.75,   0.648929,  -148.75,   0.648928,    91.25,          0,     0.00, 1.28885E-012,    33.36,    38.3688,   126.36,    38.3687,     6.36,    38.3686,  -113.64, 0.000316205,   -93.24, 6.59971E-012,    79.08
Transformer.T34,   0.194254,   -35.82,   0.194254,  -155.82,   0.194254,    84.18,          0,     0.00, 2.90286E-012,    28.51,    8.92387,   149.26,    8.92384,    29.26,     8.9238,   -90.74, 0.000109916,   -69.13, 2.23937E-012,    66.04
Transformer.T35,   0.649097,   -28.75,   0.649097,  -148.75,   0.649097,    91.25,          0,     0.00, 1.37263E-012,    40.22,    38.3802,   126.35,    38.3801,     6.35,      38.38,  -113.65, 0.000333265,   -94.35, 5.65813E-012,    67.56
Transformer.T36,   0.649442,   -28.75,   0.649443,  -148.75,   0.649442,    91.25,          0,     0.00, 1.52476E-012,    41.79,    38.4034,   126.35,    38.4034,     6.35,    38.4032,  -113.65, 0.000367872,   -94.61, 7.01918E-012,    65.10
Transformer.T37,   0.649442,   -28.75,   0.649443,  -148.75,   0.649442,    91.25,          0,     0.00, 1.52476E-012,    41.79,    38.4034,   126.35,    38.4034,     6.35,    38.4032,  -113.65, 0.000367872,   -94.61, 7.01918E-012,    65.10
Transformer.T38,    1.08306,   -28.76,    1.08306,  -148.76,    1.08306,    91.24,          0,     0.00, 2.78285E-012,    42.88,    64.0487,   126.33,    64.0486,     6.33,    64.0483,  -113.67, 0.000670746,   -94.83, 1.12176E-011,    72.30
Transformer.T39,   0.650224,   -28.75,   0.650224,  -148.75,   0.650224,    91.25,          0,     0.00, 1.86302E-012,    44.03,    38.4561,   126.34,     38.456,     6.34,    38.4559,  -113.66, 0.000446404,   -95.04, 8.17044E-012,    68.79
Transformer.T40,    0.65023,   -28.75,    0.65023,  -148.75,    0.65023,    91.25,          0,     0.00, 1.86089E-012,    43.49,    38.4565,   126.34,    38.4564,     6.34,    38.4563,  -113.66, 0.000446994,   -95.05, 8.29992E-012,    66.60
Transformer.T41,   0.650498,   -28.75,   0.650498,  -148.75,   0.650497,    91.25,          0,     0.00, 1.96975E-012,    44.12,    38.4745,   126.33,    38.4745,     6.33,    38.4743,  -113.67, 0.000473927,   -95.17, 8.01714E-012,    71.82
Transformer.T42,    1.08425,   -28.76,    1.08425,  -148.76,    1.08425,    91.24,          0,     0.00, 3.30115E-012,    44.39,    64.1289,   126.32,    64.1288,     6.32,    64.1285,  -113.68, 0.000790527,   -95.18, 1.50771E-011,    66.91
Transformer.T43,   0.650725,   -28.75,   0.650725,  -148.75,   0.650725,    91.25,          0,     0.00, 2.06754E-012,    44.65,    38.4899,   126.33,    38.4898,     6.33,    38.4896,  -113.67, 0.000496842,   -95.26, 9.07788E-012,    67.93
Transformer.T44,   0.650802,   -28.75,   0.650802,  -148.75,   0.650802,    91.25,          0,     0.00, 2.11272E-012,    44.93,    38.4951,   126.33,     38.495,     6.33,    38.4948,  -113.67, 0.000504613,   -95.29, 9.1212E-012,    67.27
Transformer.T45,    0.65089,   -28.75,    0.65089,  -148.75,    0.65089,    91.25,          0,     0.00, 2.14538E-012,    45.13,     38.501,   126.33,    38.5009,     6.33,    38.5007,  -113.67, 0.000513457,   -95.32, 9.22616E-012,    67.54
Transformer.T46,   0.651121,   -28.75,   0.651122,  -148.75,   0.651121,    91.25,          0,     0.00, 2.24338E-012,    45.32,    38.5166,   126.33,    38.5165,     6.33,    38.5163,  -113.67, 0.000536818,   -95.40, 9.81467E-012,    71.77
Transformer.T47,    1.08532,   -28.75,    1.08532,  -148.75,    1.08532,    91.25,          0,     0.00, 3.77333E-012,    45.38,    64.2012,   126.32,    64.2011,     6.32,    64.2007,  -113.68, 0.000898722,   -95.41, 1.60713E-011,    64.89
Transformer.T48,   0.651132,   -28.75,   0.651132,  -148.75,   0.651132,    91.25,          0,     0.00, 2.24844E-012,    45.45,    38.5173,   126.33,    38.5172,     6.33,     38.517,  -113.67, 0.000537846,   -95.40, 9.67408E-012,    70.07
Transformer.T49,   0.651425,   -28.74,   0.651426,  -148.74,   0.651425,    91.26,          0,     0.00, 2.3742E-012,    45.79,     38.537,   126.32,    38.5369,     6.32,    38.5367,  -113.68, 0.000567475,   -95.49, 1.0136E-011,    66.89
Transformer.T50,   0.651428,   -28.74,   0.651428,  -148.74,   0.651427,    91.26,          0,     0.00, 2.37668E-012,    45.73,    38.5372,   126.32,    38.5371,     6.32,    38.5369,  -113.68, 0.000567713,   -95.49, 1.08973E-011,    66.64
Transformer.T51,   0.651485,   -28.74,   0.651486,  -148.74,   0.651485,    91.26,          0,     0.00, 2.39175E-012,    45.72,    38.5411,   126.32,     38.541,     6.32,    38.5407,  -113.68, 0.000573541,   -95.51, 1.01405E-011,    70.35
Transformer.T52,    0.65177,   -28.74,   0.651771,  -148.74,    0.65177,    91.26,          0,     0.00, 2.51758E-012,    46.03,    38.5603,   126.32,    38.5602,     6.32,    38.5599,  -113.68, 0.00060237,   -95.59, 1.1044E-011,    69.51
Transformer.T53,   0.652046,   -28.74,   0.652047,  -148.74,   0.652046,    91.26,          0,     0.00, 2.63214E-012,    46.29,    38.5789,   126.31,    38.5787,     6.31,    38.5785,  -113.69,  0.0006303,   -95.66, 1.16322E-011,    68.20
Transformer.T54,    1.08707,   -28.75,    1.08707,  -148.75,    1.08707,    91.25,          0,     0.00, 4.48258E-012,    46.16,    64.3189,   126.30,    64.3187,     6.30,    64.3183,  -113.70, 0.00107535,   -95.70, 1.89826E-011,    71.13
Transformer.T55,    1.08729,   -28.75,    1.08729,  -148.75,    1.08729,    91.25,          0,     0.00, 4.59611E-012,    46.41,    64.3338,   126.30,    64.3336,     6.30,    64.3332,  -113.70, 0.00109782,   -95.74, 1.972E-011,    69.06
Transformer.T56,    1.08749,   -28.75,    1.08749,  -148.75,    1.08749,    91.25,          0,     0.00, 4.677E-012,    46.63,    64.3472,   126.30,     64.347,     6.30,    64.3466,  -113.70, 0.00111797,   -95.76, 2.0651E-011,    69.37
Transformer.T57,    1.08824,   -28.75,    1.08824,  -148.75,    1.08824,    91.25,          0,     0.00, 4.99613E-012,    46.61,    64.3977,   126.29,    64.3974,     6.30,     64.397,  -113.71, 0.00119392,   -95.85, 2.27203E-011,    67.03
Transformer.T58,    1.08856,   -28.75,    1.08856,  -148.75,    1.08855,    91.25,          0,     0.00, 5.13282E-012,    46.96,    64.4188,   126.29,    64.4186,     6.29,    64.4181,  -113.71, 0.00122585,   -95.89, 2.15334E-011,    68.31
Transformer.T59,    1.08875,   -28.75,    1.08875,  -148.75,    1.08875,    91.25,          0,     0.00, 5.20797E-012,    46.88,    64.4322,   126.29,     64.432,     6.29,    64.4315,  -113.71, 0.00124605,   -95.91, 2.05493E-011,    65.14
Transformer.T60,    1.08893,   -28.74,    1.08893,  -148.74,    1.08893,    91.26,          0,     0.00, 5.28865E-012,    46.96,    64.4443,   126.29,    64.4441,     6.29,    64.4436,  -113.71,  0.0012643,   -95.93, 2.3181E-011,    68.72
Transformer.T61,    1.08912,   -28.74,    1.08912,  -148.74,    1.08912,    91.26,          0,     0.00, 5.36415E-012,    46.99,    64.4571,   126.29,    64.4569,     6.29,    64.4564,  -113.71, 0.00128364,   -95.95, 2.34757E-011,    68.40
Transformer.T62,     1.0892,   -28.74,     1.0892,  -148.74,     1.0892,    91.26,          0,     0.00, 5.40207E-012,    47.05,    64.4623,   126.29,    64.4621,     6.29,    64.4616,  -113.71, 0.00129154,   -95.96, 2.28429E-011,    67.77
Transformer.T82,   0.653894,   -28.73,   0.653895,  -148.73,   0.653894,    91.27,          0,     0.00, 3.43011E-012,    47.60,    38.7033,   126.29,    38.7031,     6.29,    38.7028,  -113.71, 0.000817851,   -96.01, 1.50105E-011,    68.68
Transformer.T63,   0.653908,   -28.73,   0.653909,  -148.73,   0.653908,    91.27,          0,     0.00, 3.42726E-012,    47.48,    38.7042,   126.29,    38.7041,     6.29,    38.7037,  -113.71, 0.000819298,   -96.01, 1.47359E-011,    67.79
Transformer.T64,   0.653904,   -28.73,   0.653904,  -148.73,   0.653903,    91.27,          0,     0.00, 3.42203E-012,    47.40,    38.7039,   126.29,    38.7037,     6.29,    38.7034,  -113.71, 0.00081882,   -96.01, 1.43849E-011,    70.13
Transformer.T65,   0.653914,   -28.73,   0.653914,  -148.73,   0.653914,    91.27,          0,     0.00, 3.4373E-012,    47.47,    38.7046,   126.29,    38.7044,     6.29,    38.7041,  -113.71, 0.000819869,   -96.01, 1.4302E-011,    66.08
Transformer.T66,   0.653925,   -28.73,   0.653926,  -148.73,   0.653925,    91.27,          0,     0.00, 3.4395E-012,    47.34,    38.7053,   126.29,    38.7052,     6.29,    38.7049,  -113.71, 0.000820995,   -96.02, 1.5648E-011,    69.59
Transformer.T67,   0.653931,   -28.73,   0.653932,  -148.73,   0.653931,    91.27,          0,     0.00, 3.43599E-012,    47.45,    38.7057,   126.29,    38.7056,     6.29,    38.7053,  -113.71, 0.000821634,   -96.02, 1.44883E-011,    71.71
Transformer.T68,   0.653882,   -28.73,   0.653882,  -148.73,   0.653881,    91.27,          0,     0.00, 3.39934E-012,    47.37,    38.7024,   126.29,    38.7023,     6.29,    38.7019,  -113.71, 0.000816584,   -96.01, 1.46933E-011,    68.20
Transformer.T69,    1.08991,   -28.74,    1.08992,  -148.74,    1.08991,    91.26,          0,     0.00, 5.69702E-012,    47.27,    64.5103,   126.28,    64.5101,     6.28,    64.5095,  -113.72, 0.00136401,   -96.02, 2.41937E-011,    68.50
Transformer.T70,    1.09002,   -28.74,    1.09002,  -148.74,    1.09002,    91.26,          0,     0.00, 5.73236E-012,    47.31,    64.5172,   126.28,    64.5169,     6.28,    64.5164,  -113.72, 0.00137439,   -96.03, 2.48785E-011,    71.90
Transformer.T71,    1.09003,   -28.74,    1.09003,  -148.74,    1.09003,    91.26,          0,     0.00, 5.75285E-012,    47.40,    64.5181,   126.28,    64.5179,     6.28,    64.5173,  -113.72, 0.00137586,   -96.03, 2.49117E-011,    68.59
Transformer.T72,    1.09009,   -28.74,    1.09009,  -148.74,    1.09008,    91.26,          0,     0.00, 5.76551E-012,    47.42,    64.5218,   126.28,    64.5215,     6.28,     64.521,  -113.72, 0.00138142,   -96.04, 2.62663E-011,    69.21
Transformer.T73,   0.654033,   -28.73,   0.654034,  -148.73,   0.654033,    91.27,          0,     0.00, 3.47555E-012,    47.17,    38.7126,   126.29,    38.7125,     6.29,    38.7122,  -113.71, 0.000832057,   -96.03, 1.52264E-011,    66.69
Transformer.T74,    1.09014,   -28.74,    1.09014,  -148.74,    1.09014,    91.26,          0,     0.00, 5.80264E-012,    47.28,    64.5257,   126.28,    64.5254,     6.28,    64.5249,  -113.72, 0.00138733,   -96.04, 2.51687E-011,    67.14
Transformer.T75,   0.654028,   -28.73,   0.654028,  -148.73,   0.654028,    91.27,          0,     0.00, 3.47666E-012,    47.11,    38.7123,   126.29,    38.7121,     6.29,    38.7118,  -113.71, 0.000831485,   -96.03, 1.48234E-011,    66.97
Transformer.T76,    1.09015,   -28.74,    1.09015,  -148.74,    1.09015,    91.26,          0,     0.00, 5.80746E-012,    47.23,    64.5259,   126.28,    64.5256,     6.28,    64.5251,  -113.72, 0.00138762,   -96.04, 2.4107E-011,    64.89
Transformer.T77,   0.654039,   -28.73,   0.654039,  -148.73,   0.654038,    91.27,          0,     0.00, 3.48488E-012,    47.40,     38.713,   126.29,    38.7128,     6.29,    38.7125,  -113.71, 0.000832572,   -96.03, 1.55589E-011,    68.12
Transformer.T78,    1.81739,   -28.75,    1.81739,  -148.75,    1.81738,    91.25,          0,     0.00, 9.81566E-012,    47.35,    107.573,   126.27,    107.573,     6.27,    107.572,  -113.73, 0.00234726,   -96.06, 4.11289E-011,    71.97
Transformer.T79,    1.09034,   -28.74,    1.09035,  -148.74,    1.09034,    91.26,          0,     0.00, 5.89301E-012,    47.25,    64.5392,   126.28,     64.539,     6.28,    64.5384,  -113.72,  0.0014078,   -96.05, 2.67268E-011,    68.02
Transformer.T80,    1.81745,   -28.75,    1.81745,  -148.75,    1.81745,    91.25,          0,     0.00, 9.85464E-012,    47.16,    107.578,   126.27,    107.577,     6.27,    107.576,  -113.73, 0.00235405,   -96.07, 4.20537E-011,    68.43
Transformer.T81,    1.09041,   -28.74,    1.09041,  -148.74,    1.09041,    91.26,          0,     0.00, 5.90606E-012,    47.36,    64.5438,   126.28,    64.5436,     6.28,     64.543,  -113.72, 0.00141477,   -96.05, 2.44889E-011,    68.20
Transformer.T1000,    1.09033,   -28.74,    1.09033,  -148.74,    1.09033,    91.26,          0,     0.00, 5.87333E-012,    47.35,    64.5383,   126.28,     64.538,     6.28,    64.5375,  -113.72, 0.00140633,   -96.05, 2.44889E-011,    68.20
Transformer.T10001,    1.09056,   -28.74,    1.09056,  -148.74,    1.09055,    91.26,          0,     0.00, 5.97676E-012,    47.43,    64.5534,   126.28,    64.5532,     6.28,    64.5526,  -113.72, 0.00142927,   -96.06, 2.68542E-011,    68.65
Transformer.T10002,    1.09066,   -28.74,    1.09066,  -148.74,    1.09066,    91.26,          0,     0.00, 6.00208E-012,    47.47,    64.5605,   126.28,    64.5602,     6.28,    64.5597,  -113.72, 0.00143995,   -96.06, 2.68195E-011,    71.72
Transformer.T10003,   0.578108,   -32.99,   0.578109,  -152.99,   0.578107,    87.01,          0,     0.00, 6.02958E-012,    47.44,    32.1567,   126.55,    32.1566,     6.55,    32.1563,  -113.45, 0.000716771,   -95.52, 1.3765E-011,    67.67
Transformer.T10004,   0.578108,   -32.99,   0.578109,  -152.99,   0.578107,    87.01,          0,     0.00, 6.02958E-012,    47.44,    32.1567,   126.55,    32.1566,     6.55,    32.1563,  -113.45, 0.000716771,   -95.52, 1.3765E-011,    67.67
Transformer.T10005,    1.09072,   -28.74,    1.09072,  -148.74,    1.09072,    91.26,          0,     0.00, 6.03743E-012,    47.50,    64.5647,   126.28,    64.5644,     6.28,    64.5638,  -113.72, 0.00144627,   -96.06, 2.69656E-011,    65.60
Transformer.T10006,    1.09073,   -28.74,    1.09073,  -148.74,    1.09073,    91.26,          0,     0.00, 6.04181E-012,    47.36,    64.5651,   126.28,    64.5648,     6.28,    64.5643,  -113.72, 0.00144695,   -96.06, 2.56761E-011,    67.07
Transformer.T10009,    1.09072,   -28.74,    1.09072,  -148.74,    1.09072,    91.26,          0,     0.00, 6.03962E-012,    47.43,    64.5642,   126.28,     64.564,     6.28,    64.5634,  -113.72, 0.00144562,   -96.06, 2.63459E-011,    64.98
Transformer.T100091,     0.6798,   -31.59,   0.679801,  -151.59,     0.6798,    88.41,          0,     0.00, 6.03962E-012,    47.43,    38.6158,   126.50,    38.6156,     6.50,    38.6153,  -113.50, 0.000862097,   -95.62, 1.43173E-011,    69.55
Transformer.T1000912,   0.679803,   -31.59,   0.679804,  -151.59,   0.679803,    88.41,          0,     0.00, 6.05489E-012,    47.47,    38.6159,   126.50,    38.6158,     6.50,    38.6155,  -113.50, 0.000862382,   -95.61, 1.63219E-011,    71.31
Line.LINHA200,    104.352,   -32.20,     104.35,  -152.20,     104.35,    87.80,          0,     0.00, 0.00538369,   -30.73,    104.354,   147.80,    104.352,    27.80,    104.352,   -92.20,          0,     0.00, 0.00533429,   149.27
Line.LINHA201,    104.354,   -32.20,    104.352,  -152.20,    104.352,    87.80,          0,     0.00, 0.00533429,   -30.73,    104.354,   147.80,    104.352,    27.80,    104.352,   -92.21,          0,     0.00, 0.00531948,   149.27
Line.LINHA202,    104.354,   -32.20,    104.352,  -152.20,    104.352,    87.79,          0,     0.00, 0.00531948,   -30.73,    104.355,   147.80,    104.352,    27.80,    104.353,   -92.21,          0,     0.00, 0.00530467,   149.27
Line.LINHA203,    104.355,   -32.20,    104.352,  -152.20,    104.353,    87.79,          0,     0.00, 0.00530467,   -30.73,    104.355,   147.80,    104.352,    27.80,    104.353,   -92.21,          0,     0.00,  0.0053027,   149.27
Line.LINHA204,    104.355,   -32.20,    104.352,  -152.20,    104.353,    87.79,          0,     0.00,  0.0053027,   -30.73,    104.355,   147.79,    104.353,    27.80,    104.353,   -92.21,          0,     0.00,  0.0052879,   149.27
Line.LINHA205,    104.355,   -32.21,    104.353,  -152.20,    104.353,    87.79,          0,     0.00,  0.0052879,   -30.73,    104.356,   147.79,    104.353,    27.80,    104.354,   -92.21,          0,     0.00,  0.0052731,   149.27
Line.LINHA206,    104.356,   -32.21,    104.353,  -152.20,    104.354,    87.79,          0,     0.00,  0.0052731,   -30.73,    104.356,   147.79,    104.354,    27.80,    104.354,   -92.21,          0,     0.00, 0.00525831,   149.27
Line.LINHA207,    104.356,   -32.21,    104.354,  -152.20,    104.354,    87.79,          0,     0.00, 0.00525831,   -30.73,    104.357,   147.79,    104.354,    27.79,    104.354,   -92.21,          0,     0.00, 0.00524353,   149.27
Line.LINHA208,    104.357,   -32.21,    104.354,  -152.21,    104.354,    87.79,          0,     0.00, 0.00524353,   -30.73,    104.357,   147.79,    104.355,    27.79,    104.355,   -92.21,          0,     0.00, 0.00522875,   149.27
Line.LINHA209,    104.357,   -32.21,    104.355,  -152.21,    104.355,    87.79,          0,     0.00, 0.00522875,   -30.73,    104.357,   147.79,    104.355,    27.79,    104.355,   -92.21,          0,     0.00, 0.00521397,   149.27
Line.LINHA210,    104.357,   -32.21,    104.355,  -152.21,    104.355,    87.79,          0,     0.00, 0.00521397,   -30.73,    104.358,   147.79,    104.356,    27.79,    104.356,   -92.21,          0,     0.00,  0.0051992,   149.27
Line.LINHA211,    104.358,   -32.21,    104.356,  -152.21,    104.356,    87.79,          0,     0.00,  0.0051992,   -30.73,    104.358,   147.79,    104.356,    27.79,    104.356,   -92.21,          0,     0.00, 0.00518444,   149.27
Line.LINHA212,    103.711,   -32.23,    103.709,  -152.23,    103.709,    87.77,          0,     0.00, 0.00518444,   -30.73,    103.712,   147.77,    103.709,    27.77,     103.71,   -92.23,          0,     0.00, 0.00516968,   149.27
Line.LINHA213,    52.6279,   -35.72,    52.6278,  -155.72,    52.6277,    84.28,          0,     0.00, 0.000353566,   -30.68,    52.6284,   144.28,    52.6283,    24.28,    52.6282,   -95.72,          0,     0.00, 0.000338809,   149.32
Line.LINHA214,    52.6284,   -35.72,    52.6283,  -155.72,    52.6282,    84.28,          0,     0.00, 0.000338809,   -30.68,    52.6288,   144.28,    52.6288,    24.28,    52.6287,   -95.72,          0,     0.00, 0.000324054,   149.32
Line.LINHA215,    52.6288,   -35.72,    52.6288,  -155.72,    52.6287,    84.28,          0,     0.00, 0.000324054,   -30.68,    52.6293,   144.28,    52.6293,    24.28,    52.6291,   -95.72,          0,     0.00, 0.000309302,   149.32
Line.LINHA216,    52.6293,   -35.72,    52.6293,  -155.72,    52.6291,    84.28,          0,     0.00, 0.000309302,   -30.68,    52.6298,   144.28,    52.6298,    24.28,    52.6296,   -95.72,          0,     0.00, 0.000294552,   149.32
Line.LINHA217,    52.6298,   -35.72,    52.6298,  -155.72,    52.6296,    84.28,          0,     0.00, 0.000294551,   -30.68,    52.6303,   144.28,    52.6303,    24.28,    52.6301,   -95.72,          0,     0.00, 0.000279804,   149.32
Line.LINHA218,    51.9862,   -35.81,    51.9862,  -155.81,     51.986,    84.19,          0,     0.00, 0.000279804,   -30.68,    51.9867,   144.19,    51.9867,    24.19,    51.9865,   -95.81,          0,     0.00, 0.000265059,   149.32
Line.LINHA219,    51.9867,   -35.81,    51.9867,  -155.81,    51.9865,    84.19,          0,     0.00, 0.000265059,   -30.68,    51.9871,   144.19,    51.9872,    24.19,     51.987,   -95.81,          0,     0.00, 0.000250316,   149.32
Line.LINHA220,    51.9871,   -35.81,    51.9872,  -155.81,     51.987,    84.19,          0,     0.00, 0.000250316,   -30.68,    51.9876,   144.19,    51.9876,    24.19,    51.9875,   -95.81,          0,     0.00, 0.000235576,   149.32
Line.LINHA221,    51.9876,   -35.81,    51.9876,  -155.81,    51.9875,    84.19,          0,     0.00, 0.000235576,   -30.68,    51.9881,   144.19,    51.9881,    24.19,     51.988,   -95.81,          0,     0.00, 0.000220838,   149.32
Line.LINHA222,    51.9881,   -35.81,    51.9881,  -155.81,     51.988,    84.19,          0,     0.00, 0.000220838,   -30.68,    51.9886,   144.19,    51.9886,    24.19,    51.9885,   -95.81,          0,     0.00, 0.000206102,   149.32
Line.LINHA223,    51.9886,   -35.81,    51.9886,  -155.81,    51.9885,    84.19,          0,     0.00, 0.000206102,   -30.68,    51.9891,   144.19,    51.9891,    24.19,    51.9889,   -95.81,          0,     0.00, 0.000191369,   149.32
Line.LINHA224,    51.9891,   -35.81,    51.9891,  -155.81,    51.9889,    84.19,          0,     0.00, 0.000191369,   -30.68,    51.9895,   144.19,    51.9896,    24.19,    51.9894,   -95.81,          0,     0.00, 0.000176639,   149.32
Line.LINHA225,    51.9895,   -35.81,    51.9896,  -155.81,    51.9894,    84.19,          0,     0.00, 0.000176639,   -30.68,      51.99,   144.19,    51.9901,    24.19,    51.9899,   -95.81,          0,     0.00, 0.00016191,   149.32
Line.LINHA226,      51.99,   -35.81,    51.9901,  -155.81,    51.9899,    84.19,          0,     0.00, 0.000161911,   -30.68,    51.9905,   144.19,    51.9906,    24.19,    51.9904,   -95.81,          0,     0.00, 0.000147185,   149.32
Line.LINHA227,    51.9905,   -35.81,    51.9906,  -155.81,    51.9904,    84.19,          0,     0.00, 0.000147185,   -30.68,     51.991,   144.19,     51.991,    24.19,    51.9909,   -95.81,          0,     0.00, 0.000132462,   149.32
Line.LINHA228,     51.991,   -35.81,     51.991,  -155.81,    51.9909,    84.19,          0,     0.00, 0.000132461,   -30.68,    51.9914,   144.18,    51.9915,    24.18,    51.9914,   -95.82,          0,     0.00, 0.00011774,   149.32
Line.LINHA229,    51.9914,   -35.82,    51.9915,  -155.82,    51.9914,    84.18,          0,     0.00, 0.00011774,   -30.68,    51.9919,   144.18,     51.992,    24.18,    51.9918,   -95.82,          0,     0.00, 0.000103022,   149.32
Line.LINHA230, 0.00575214,    89.70,  0.0058112,   -30.08, 0.00575005,  -149.80,          0,     0.00, 0.000103021,   -30.68,  0.0049304,   -90.30, 0.00498103,   149.92, 0.00492861,    30.20,          0,     0.00, 8.8304E-005,   149.32
Line.LINHA231,  0.0049304,    89.70, 0.00498103,   -30.08, 0.00492861,  -149.80,          0,     0.00, 8.83038E-005,   -30.68, 0.00410867,   -90.30, 0.00415086,   149.92, 0.00410718,    30.20,          0,     0.00, 7.35866E-005,   149.32
Line.LINHA232, 0.00410867,    89.70, 0.00415086,   -30.08, 0.00410718,  -149.80,          0,     0.00, 7.35866E-005,   -30.68, 0.00328694,   -90.30, 0.00332068,   149.92, 0.00328574,    30.20,          0,     0.00, 5.88693E-005,   149.32
Line.LINHA233, 0.00328694,    89.70, 0.00332068,   -30.08, 0.00328574,  -149.80,          0,     0.00, 5.88691E-005,   -30.68,  0.0024652,   -90.30, 0.00249051,   149.92, 0.00246431,    30.20,          0,     0.00, 4.41518E-005,   149.32
Line.LINHA234,  0.0024652,    89.70, 0.00249051,   -30.08, 0.00246431,  -149.80,          0,     0.00, 4.41519E-005,   -30.68, 0.00164347,   -90.30, 0.00166034,   149.92, 0.00164287,    30.20,          0,     0.00, 2.94346E-005,   149.32
Line.LINHA235, 0.00164347,    89.70, 0.00166034,   -30.08, 0.00164287,  -149.80,          0,     0.00, 2.94345E-005,   -30.68, 0.000821734,   -90.30, 0.000830171,   149.92, 0.000821435,    30.20,          0,     0.00, 1.47173E-005,   149.32
Line.LINHA236, 0.000821734,    89.70, 0.000830171,   -30.08, 0.000821435,  -149.80,          0,     0.00, 1.47172E-005,   -30.68, 3.27418E-011,     0.00, 4.65889E-011,    38.66, 3.63798E-011,     0.00,          0,     0.00, 1.09442E-010,    15.42
Line.LINHA237,    51.2813,   -28.65,    51.2791,  -148.65,    51.2793,    91.35,          0,     0.00, 0.00481611,   -30.73,    51.2817,   151.35,    51.2795,    31.35,    51.2797,   -88.65,          0,     0.00, 0.00480135,   149.27
Line.LINHA238,    51.2817,   -28.65,    51.2795,  -148.65,    51.2797,    91.35,          0,     0.00, 0.00480135,   -30.73,    51.2821,   151.35,    51.2799,    31.35,    51.2801,   -88.65,          0,     0.00,  0.0047866,   149.27
Line.LINHA239,    51.2821,   -28.65,    51.2799,  -148.65,    51.2801,    91.35,          0,     0.00,  0.0047866,   -30.73,    51.2825,   151.35,    51.2803,    31.35,    51.2805,   -88.65,          0,     0.00, 0.00477184,   149.27
Line.LINHA240,    51.2825,   -28.65,    51.2803,  -148.65,    51.2805,    91.35,          0,     0.00, 0.00477184,   -30.73,    51.2829,   151.35,    51.2807,    31.35,    51.2809,   -88.66,          0,     0.00, 0.00475709,   149.27
Line.LINHA241,    51.2829,   -28.65,    51.2807,  -148.65,    51.2809,    91.34,          0,     0.00, 0.00475709,   -30.73,    51.2833,   151.35,    51.2811,    31.35,    51.2813,   -88.66,          0,     0.00, 0.00474235,   149.27
Line.LINHA242,    51.2833,   -28.65,    51.2811,  -148.65,    51.2813,    91.34,          0,     0.00, 0.00474235,   -30.73,    51.2836,   151.34,    51.2815,    31.35,    51.2817,   -88.66,          0,     0.00,  0.0047276,   149.27
Line.LINHA243,    51.2836,   -28.66,    51.2815,  -148.65,    51.2817,    91.34,          0,     0.00,  0.0047276,   -30.73,     51.284,   151.34,    51.2819,    31.35,    51.2821,   -88.66,          0,     0.00, 0.00471286,   149.27
Line.LINHA244,    50.6349,   -28.66,    50.6328,  -148.65,     50.633,    91.34,          0,     0.00, 0.00471286,   -30.73,    50.6353,   151.34,    50.6332,    31.35,    50.6334,   -88.66,          0,     0.00, 0.00469812,   149.27
Line.LINHA245,    50.6353,   -28.66,    50.6332,  -148.65,    50.6334,    91.34,          0,     0.00, 0.00469812,   -30.73,    50.6355,   151.34,    50.6333,    31.35,    50.6335,   -88.66,          0,     0.00,  0.0046932,   149.26
Line.LINHA246,    50.6355,   -28.66,    50.6333,  -148.65,    50.6335,    91.34,          0,     0.00,  0.0046932,   -30.74,    50.6356,   151.34,    50.6335,    31.35,    50.6337,   -88.66,          0,     0.00, 0.00468829,   149.26
Line.LINHA247,    50.6356,   -28.66,    50.6335,  -148.65,    50.6337,    91.34,          0,     0.00, 0.00468829,   -30.74,     50.636,   151.34,    50.6339,    31.34,     50.634,   -88.66,          0,     0.00, 0.00467355,   149.26
Line.LINHA248,     50.636,   -28.66,    50.6339,  -148.66,     50.634,    91.34,          0,     0.00, 0.00467355,   -30.74,    50.6364,   151.34,    50.6343,    31.34,    50.6344,   -88.66,          0,     0.00, 0.00465882,   149.26
Line.LINHA249,    1.29466,   -28.41,    1.29459,  -148.40,     1.2946,    91.59,          0,     0.00, 0.000159611,   -30.70,    1.29486,   151.58,    1.29479,    31.58,    1.29479,   -88.42,          0,     0.00, 0.000152244,   149.30
Line.LINHA250,    1.29486,   -28.42,    1.29479,  -148.42,    1.29479,    91.58,          0,     0.00, 0.000152244,   -30.70,    1.29499,   151.57,    1.29492,    31.57,    1.29493,   -88.43,          0,     0.00, 0.000147333,   149.30
Line.LINHA251,    1.29499,   -28.43,    1.29492,  -148.43,    1.29493,    91.57,          0,     0.00, 0.000147333,   -30.70,    1.29537,   151.53,    1.29531,    31.54,    1.29532,   -88.47,          0,     0.00,  0.0001326,   149.30
Line.LINHA252,    1.29537,   -28.47,    1.29531,  -148.46,    1.29532,    91.53,          0,     0.00,  0.0001326,   -30.70,    1.29576,   151.50,    1.29571,    31.50,    1.29571,   -88.50,          0,     0.00, 0.000117866,   149.30
Line.LINHA253,   0.647882,   -28.50,   0.647855,  -148.50,   0.647857,    91.50,          0,     0.00, 5.89331E-005,   -30.70,    0.64827,   151.44,    0.64825,    31.44,   0.648252,   -88.56,          0,     0.00, 4.41998E-005,   149.30
Line.LINHA254,    0.64827,   -28.56,    0.64825,  -148.56,   0.648252,    91.44,          0,     0.00, 4.41999E-005,   -30.70,    0.64866,   151.37,   0.648647,    31.38,   0.648648,   -88.63,          0,     0.00, 2.94666E-005,   149.30
Line.LINHA255,    0.64866,   -28.63,   0.648647,  -148.62,   0.648648,    91.37,          0,     0.00, 2.94666E-005,   -30.70,   0.649051,   151.31,   0.649044,    31.31,   0.649045,   -88.69,          0,     0.00, 1.47332E-005,   149.30
Line.LINHA256,   0.649051,   -28.69,   0.649044,  -148.69,   0.649045,    91.31,          0,     0.00, 1.47332E-005,   -30.70,   0.649442,   151.25,   0.649443,    31.25,   0.649442,   -88.75,          0,     0.00, 3.63798E-011,    53.13
Line.LINHA257,   0.647882,   -28.50,   0.647855,  -148.50,   0.647857,    91.50,          0,     0.00, 5.89331E-005,   -30.70,    0.64827,   151.44,    0.64825,    31.44,   0.648252,   -88.56,          0,     0.00, 4.41998E-005,   149.30
Line.LINHA258,    0.64827,   -28.56,    0.64825,  -148.56,   0.648252,    91.44,          0,     0.00, 4.41999E-005,   -30.70,    0.64866,   151.37,   0.648647,    31.38,   0.648648,   -88.63,          0,     0.00, 2.94666E-005,   149.30
Line.LINHA259,    0.64866,   -28.63,   0.648647,  -148.62,   0.648648,    91.37,          0,     0.00, 2.94666E-005,   -30.70,   0.649051,   151.31,   0.649044,    31.31,   0.649045,   -88.69,          0,     0.00, 1.47332E-005,   149.30
Line.LINHA260,   0.649051,   -28.69,   0.649044,  -148.69,   0.649045,    91.31,          0,     0.00, 1.47332E-005,   -30.70,   0.649442,   151.25,   0.649443,    31.25,   0.649442,   -88.75,          0,     0.00, 3.63798E-011,    53.13
Line.LINHA261,    49.3417,   -28.66,    49.3397,  -148.66,    49.3399,    91.33,          0,     0.00, 0.00449921,   -30.74,    49.3421,   151.33,    49.3401,    31.34,    49.3403,   -88.67,          0,     0.00, 0.00448448,   149.26
Line.LINHA262,    49.3421,   -28.67,    49.3401,  -148.66,    49.3403,    91.33,          0,     0.00, 0.00448448,   -30.74,    49.3425,   151.33,    49.3405,    31.34,    49.3407,   -88.67,          0,     0.00, 0.00446975,   149.26
...